FoamFile
{
    version  2.0;
    format   ascii;
    class    dictionary;
    object   blockMeshDict;
}

convertToMeters 1.0;

vertices
(
   // put vertices here
   // this is sample entry

(0.5, 0.0, -0.5) // 0
(0.3535533905932738, 0.35355339059327373, -0.5) // 1
(3.061616997868383e-17, 0.5, -0.5) // 2
(-0.35355339059327373, 0.3535533905932738, -0.5) // 3
(-0.5, 6.123233995736766e-17, -0.5) // 4
(-0.35355339059327384, -0.35355339059327373, -0.5) // 5
(-9.184850993605148e-17, -0.5, -0.5) // 6
(0.3535533905932737, -0.35355339059327384, -0.5) // 7
(1.0, 0.0, -0.5) // 8
(0.7071067811865476, 0.7071067811865475, -0.5) // 9
(6.123233995736766e-17, 1.0, -0.5) // 10
(-0.7071067811865475, 0.7071067811865476, -0.5) // 11
(-1.0, 1.2246467991473532e-16, -0.5) // 12
(-0.7071067811865477, -0.7071067811865475, -0.5) // 13
(-1.8369701987210297e-16, -1.0, -0.5) // 14
(0.7071067811865474, -0.7071067811865477, -0.5) // 15
(6.0, 0.0, -0.5) // 16
(6.0, 0.7071067811865475, -0.5) // 17
(6.0, 4.0, -0.5) // 18
(0.7071067811865476, 4.0, -0.5) // 19
(0.0, 4.0, -0.5) // 20
(-0.7071067811865476, 4.0, -0.5) // 21
(-4.0, 4.0, -0.5) // 22
(-4.0, 0.7071067811865476, -0.5) // 23
(-4.0, 0.0, -0.5) // 24
(-4.0, -0.7071067811865476, -0.5) // 25
(-4.0, -4.0, -0.5) // 26
(-0.7071067811865476, -4.0, -0.5) // 27
(0.0, -4.0, -0.5) // 28
(0.7071067811865476, -4.0, -0.5) // 29
(6.0, -4.0, -0.5) // 30
(6.0, -0.7071067811865475, -0.5) // 31
(0.5, 0.0, 0.5) // 32
(0.3535533905932738, 0.35355339059327373, 0.5) // 33
(3.061616997868383e-17, 0.5, 0.5) // 34
(-0.35355339059327373, 0.3535533905932738, 0.5) // 35
(-0.5, 6.123233995736766e-17, 0.5) // 36
(-0.35355339059327384, -0.35355339059327373, 0.5) // 37
(-9.184850993605148e-17, -0.5, 0.5) // 38
(0.3535533905932737, -0.35355339059327384, 0.5) // 39
(1.0, 0.0, 0.5) // 40
(0.7071067811865476, 0.7071067811865475, 0.5) // 41
(6.123233995736766e-17, 1.0, 0.5) // 42
(-0.7071067811865475, 0.7071067811865476, 0.5) // 43
(-1.0, 1.2246467991473532e-16, 0.5) // 44
(-0.7071067811865477, -0.7071067811865475, 0.5) // 45
(-1.8369701987210297e-16, -1.0, 0.5) // 46
(0.7071067811865474, -0.7071067811865477, 0.5) // 47
(6.0, 0.0, 0.5) // 48
(6.0, 0.7071067811865475, 0.5) // 49
(6.0, 4.0, 0.5) // 50
(0.7071067811865476, 4.0, 0.5) // 51
(0.0, 4.0, 0.5) // 52
(-0.7071067811865476, 4.0, 0.5) // 53
(-4.0, 4.0, 0.5) // 54
(-4.0, 0.7071067811865476, 0.5) // 55
(-4.0, 0.0, 0.5) // 56
(-4.0, -0.7071067811865476, 0.5) // 57
(-4.0, -4.0, 0.5) // 58
(-0.7071067811865476, -4.0, 0.5) // 59
(0.0, -4.0, 0.5) // 60
(0.7071067811865476, -4.0, 0.5) // 61
(6.0, -4.0, 0.5) // 62
(6.0, -0.7071067811865475, 0.5) // 63

);

blocks
(

   // put blocks here
  // block 0
   hex (0 8 9 1 32 40 41 33) (10 20 1) simpleGrading ( 2.00000e+00  1.00000e+00 1.0)

   // block 1
   hex (1 9 10 2 33 41 42 34) (10 20 1) simpleGrading ( 2.00000e+00  1.00000e+00 1.0)

   // block 2
   hex (2 10 11 3 34 42 43 35) (10 20 1) simpleGrading ( 2.00000e+00  1.00000e+00 1.0)

   // block 3
   hex (3 11 12 4 35 43 44 36) (10 20 1) simpleGrading ( 2.00000e+00  1.00000e+00 1.0)

   // block 4
   hex (4 12 13 5 36 44 45 37) (10 20 1) simpleGrading ( 2.00000e+00  1.00000e+00 1.0)

   // block 5
   hex (5 13 14 6 37 45 46 38) (10 20 1) simpleGrading ( 2.00000e+00  1.00000e+00 1.0)

   // block 6
   hex (6 14 15 7 38 46 47 39) (10 20 1) simpleGrading ( 2.00000e+00  1.00000e+00 1.0)

   // block 7
   hex (7 15 8 0 39 47 40 32) (10 20 1) simpleGrading ( 2.00000e+00  1.00000e+00 1.0)

   // block 8
   hex (8 16 17 9 40 48 49 41) (30 20 1) simpleGrading ( 4.00000e+00  1.00000e+00 1.0)

   // block 9
   hex (9 17 18 19 41 49 50 51) (30 30 1) simpleGrading ( 4.00000e+00  4.00000e+00 1.0)

   // block 10
   hex (10 9 19 20 42 41 51 52) (20 30 1) simpleGrading ( 1.00000e+00  4.00000e+00 1.0)

   // block 11
   hex (11 10 20 21 43 42 52 53) (20 30 1) simpleGrading ( 1.00000e+00  4.00000e+00 1.0)

   // block 12
   hex (23 11 21 22 55 43 53 54) (15 30 1) simpleGrading ( 2.50000e-01  4.00000e+00 1.0)

   // block 13
   hex (24 12 11 23 56 44 43 55) (15 20 1) simpleGrading ( 2.50000e-01  1.00000e+00 1.0)

   // block 14
   hex (25 13 12 24 57 45 44 56) (15 20 1) simpleGrading ( 2.50000e-01  1.00000e+00 1.0)

   // block 15
   hex (26 27 13 25 58 59 45 57) (15 30 1) simpleGrading ( 2.50000e-01  2.50000e-01 1.0)

   // block 16
   hex (27 28 14 13 59 60 46 45) (20 30 1) simpleGrading ( 1.00000e+00  2.50000e-01 1.0)

   // block 17
   hex (28 29 15 14 60 61 47 46) (20 30 1) simpleGrading ( 1.00000e+00  2.50000e-01 1.0)

   // block 18
   hex (29 30 31 15 61 62 63 47) (30 30 1) simpleGrading ( 4.00000e+00  2.50000e-01 1.0)

   // block 19
   hex (15 31 16 8 47 63 48 40) (30 20 1) simpleGrading ( 4.00000e+00  1.00000e+00 1.0)

);

edges
(

 // put special edges, such as arcs, here

 // this is a sample entry

arc 0 1 ( 4.61940e-01  1.91342e-01 -5.00000e-02)
arc 8 9 ( 9.23880e-01  3.82683e-01 -5.00000e-02)
arc 32 33 ( 4.61940e-01  1.91342e-01  5.00000e-02)
arc 40 41 ( 9.23880e-01  3.82683e-01  5.00000e-02)
arc 1 2 ( 1.91342e-01  4.61940e-01 -5.00000e-02)
arc 9 10 ( 3.82683e-01  9.23880e-01 -5.00000e-02)
arc 33 34 ( 1.91342e-01  4.61940e-01  5.00000e-02)
arc 41 42 ( 3.82683e-01  9.23880e-01  5.00000e-02)
arc 2 3 (-1.91342e-01  4.61940e-01 -5.00000e-02)
arc 10 11 (-3.82683e-01  9.23880e-01 -5.00000e-02)
arc 34 35 (-1.91342e-01  4.61940e-01  5.00000e-02)
arc 42 43 (-3.82683e-01  9.23880e-01  5.00000e-02)
arc 3 4 (-4.61940e-01  1.91342e-01 -5.00000e-02)
arc 11 12 (-9.23880e-01  3.82683e-01 -5.00000e-02)
arc 35 36 (-4.61940e-01  1.91342e-01  5.00000e-02)
arc 43 44 (-9.23880e-01  3.82683e-01  5.00000e-02)
arc 4 5 (-4.61940e-01 -1.91342e-01 -5.00000e-02)
arc 12 13 (-9.23880e-01 -3.82683e-01 -5.00000e-02)
arc 36 37 (-4.61940e-01 -1.91342e-01  5.00000e-02)
arc 44 45 (-9.23880e-01 -3.82683e-01  5.00000e-02)
arc 5 6 (-1.91342e-01 -4.61940e-01 -5.00000e-02)
arc 13 14 (-3.82683e-01 -9.23880e-01 -5.00000e-02)
arc 37 38 (-1.91342e-01 -4.61940e-01  5.00000e-02)
arc 45 46 (-3.82683e-01 -9.23880e-01  5.00000e-02)
arc 6 7 ( 1.91342e-01 -4.61940e-01 -5.00000e-02)
arc 14 15 ( 3.82683e-01 -9.23880e-01 -5.00000e-02)
arc 38 39 ( 1.91342e-01 -4.61940e-01  5.00000e-02)
arc 46 47 ( 3.82683e-01 -9.23880e-01  5.00000e-02)
arc 7 0 ( 4.61940e-01 -1.91342e-01 -5.00000e-02)
arc 15 8 ( 9.23880e-01 -3.82683e-01 -5.00000e-02)
arc 39 32 ( 4.61940e-01 -1.91342e-01  5.00000e-02)
arc 47 40 ( 9.23880e-01 -3.82683e-01  5.00000e-02)
);

boundary
(

  inlet
  {
      type patch;
      faces
      (
         (22 54 55 23)
         (23 55 56 24)
         (24 56 57 25)
         (25 57 58 26)
      );
  }

  outlet
  {
      type patch;
      faces
      (
         (18 50 49 17)
         (17 49 48 16)
         (16 48 63 31)
         (31 63 62 30)
      );
  }

  cylinder
  {
      type wall;
      faces
      (
         (0 32 33 1)
         (1 33 34 2)
         (2 34 35 3)
         (3 35 36 4)
         (4 36 37 5)
         (5 37 38 6)
         (6 38 39 7)
         (7 39 32 0)
      );
  }

  top
  {
      type symmetryPlane;
      faces
      (
         (22 54 53 21)
         (21 53 52 20)
         (20 52 51 19)
         (19 51 50 18)
      );
  }

  bottom
  {
      type symmetryPlane;
      faces
      (
         (26 58 59 27)
         (27 59 60 28)
         (28 60 61 29)
         (29 61 62 30)
      );
  }

);
